Clear

!FILE GENERATED WITH DSSIM-PC V1.1.9.12
!DSSIM-PC created by Davis Montenegro 2013-2015

!REDIRECT TO LOAD PROFILE CODES--------------------------------------------

! Commenting out the irradiance profile for now to make things simpler
!redirect Irrad_profile.DSS

!REDIRECT TO TEMPERATURE PROFILE CODES--------------------------------------------

! Commenting out the temperature profile for now to make things simpler
!redirect Temp_Profile.DSS

!REDIRECT TO XY CURVES CODES--------------------------------------------

redirect XY_Curves.DSS

!NEW SYSTEM DEFINITION------------------------------------------------------------

New circuit.EPRI_MGrd
~ bus1=SourceBus.1.2.3 Phases=3 basekv=115 pu=1.1 Angle=0 Mvasc3=60 Mvasc1=40 


!GENERATOR DEFINITIONS------------------------------------------------------------

New generator.G_4MW bus1=N_G4MW.1.2.3  phases=3 kv=0.4 kw=4000 pf=1.0 conn=wye 
New vsource.V_G_4MW angle=30 basekv=0.4 baseMVA=4.000000 enabled=y MVAsc3=4.000000 MVAsc1=1.333333 bus1=N_G4MW.1.2.3 phases=3 pu=1.0


!LOAD DEFINITIONS------------------------------------------------------------

New Load.SM_F1MW bus1=N_F1MW.1.2.3  Phases=3 Kv=0.4 Kw=2000 Pf=1.0 Model=1 
New Load.SM_F15MW bus1=N_F1MW.1.2.3  Phases=3 Kv=0.4 Kw=2000 Pf=1.0 Model=1 
New Load.HS_H1MW bus1=N_H1MW.1.2.3  Phases=3 Kv=0.4 Kw=1000 Pf=1.0 Model=1 
New Load.OF_B2MW bus1=N_B2MW.1.2.3  Phases=3 Kv=0.4 Kw=2000 Pf=1.0 Model=1 
New Load.LD_5 bus1=N_L200kW.1  Phases=1 Kv=0.23 Kw=50 Pf=1 Model=1 
New Load.LD_6 bus1=N_L200kW.2  Phases=1 Kv=0.23 Kw=50 Pf=1 Model=1 
New Load.LD_8 bus1=N_L200kW.2  Phases=1 Kv=0.23 Kw=50 Pf=1 Model=1 
New Load.LD_7 bus1=N_L200kW.3  Phases=1 Kv=0.23 Kw=50 Pf=1 Model=1 
New Load.LD_11 bus1=N_L250kW.1  Phases=1 Kv=0.23 Kw=50 Pf=1 Model=1 
New Load.LD_13 bus1=N_L250kW.1  Phases=1 Kv=0.23 Kw=50 Pf=1 Model=1 
New Load.LD_12 bus1=N_L250kW.2  Phases=1 Kv=0.23 Kw=50 Pf=1 Model=1 
New Load.LD_10 bus1=N_L250kW.2  Phases=1 Kv=0.23 Kw=50 Pf=1 Model=1 
New Load.LD_9 bus1=N_L250kW.3  Phases=1 Kv=0.23 Kw=50 Pf=1 Model=1 


!PVG DEFINITIONS------------------------------------------------------------
! Making the PVsystem as simple generator without inverter control

New generator.PV_250kW bus1=N_B2MW.1.2.3  phases=3 kv=0.4 kw=250 pf=1.0 conn=wye
!New PVsystem.PV_250kW bus1=N_B2MW.1.2.3  phases=3 kv=0.4 conn=wye kva=250 effcurve=myeff p-tcurve=mypvst daily=myirrad tdaily=mytemp 
New vsource.V_PV_250kW angle=30 basekv=0.4 baseMVA=0.250000 enabled=y MVAsc3=0.250000 MVAsc1=0.083333 bus1=N_B2MW.1.2.3 phases=3 pu=1.0

New generator.PV_750kW bus1=N_PV750kW.1.2.3  phases=3 kv=0.4 kw=750 pf=1.0 conn=wye
!New PVsystem.PV_750kW bus1=N_PV750kW.1.2.3  phases=3 kv=0.4 conn=wye kva=750 effcurve=myeff p-tcurve=mypvst daily=myirrad tdaily=mytemp 
New vsource.V_PV_750kW angle=30 basekv=0.4 baseMVA=0.750000 enabled=y MVAsc3=0.750000 MVAsc1=0.250000 bus1=N_PV750kW.1.2.3 phases=3 pu=1.0


!SWITCH DEFINITIONS------------------------------------------------------------

New Line.SW_1 bus1=N_1.1.2.3 bus2=N_2.1.2.3 Phases=3  Switch=y  r1=1e-4 r0=1e-4 x1=0.000 x0=0.000 c1=0.000 c0=0.000 
New Line.SW_2 bus1=N_2.1.2.3 bus2=N_3.1.2.3 Phases=3  Switch=y  r1=1e-4 r0=1e-4 x1=0.000 x0=0.000 c1=0.000 c0=0.000 
New Line.SW_4 bus1=N_8.1.2.3 bus2=N_3.1.2.3 Phases=3  Switch=y  r1=1e-4 r0=1e-4 x1=0.000 x0=0.000 c1=0.000 c0=0.000 
New Line.SW_3 bus1=N_2.1.2.3 bus2=N_4.1.2.3 Phases=3  Switch=y  r1=1e-4 r0=1e-4 x1=0.000 x0=0.000 c1=0.000 c0=0.000 
New Line.SW_5 bus1=N_3.1.2.3 bus2=N_4.1.2.3 Phases=3  Switch=y  r1=1e-4 r0=1e-4 x1=0.000 x0=0.000 c1=0.000 c0=0.000 
New Line.SW_6 bus1=N_4.1.2.3 bus2=N_5.1.2.3 Phases=3  Switch=y  r1=1e-4 r0=1e-4 x1=0.000 x0=0.000 c1=0.000 c0=0.000 
New Line.SW_7 bus1=N_7.1.2.3 bus2=N_6.1.2.3 Phases=3  Switch=y  r1=1e-4 r0=1e-4 x1=0.000 x0=0.000 c1=0.000 c0=0.000 
New Line.SW_8 bus1=N_7.1.2.3 bus2=N_9.1.2.3 Phases=3  Switch=y  r1=1e-4 r0=1e-4 x1=0.000 x0=0.000 c1=0.000 c0=0.000 
New Line.SW_10 bus1=N_H1MW.1.2.3 bus2=N_11.1.2.3 Phases=3  Switch=y  r1=1e-4 r0=1e-4 x1=0.000 x0=0.000 c1=0.000 c0=0.000 
New Line.SW_11 bus1=N_13.1.2.3 bus2=N_14.1.2.3 Phases=3  Switch=y  r1=1e-4 r0=1e-4 x1=0.000 x0=0.000 c1=0.000 c0=0.000 
New Line.SW_12 bus1=N_5.1.2.3 bus2=N_15.1.2.3 Phases=3  Switch=y  r1=1e-4 r0=1e-4 x1=0.000 x0=0.000 c1=0.000 c0=0.000 
New Line.SW_9 bus1=N_10.1.2.3 bus2=N_H1MW.1.2.3 Phases=3  Switch=y  r1=1e-4 r0=1e-4 x1=0.000 x0=0.000 c1=0.000 c0=0.000 


!TRANSFORMER DEFINITIONS------------------------------------------------------------

New Transformer.Substation Phases=3 wdg=1 bus=SourceBus.1.2.3 Conn=delta  KV=115 Kva=30000 wdg=2 bus=N_1.1.2.3 Conn=wye KV=13.2 
New Transformer.Tr_005 Phases=3 wdg=1 bus=N_7.1.2.3 Conn=wye KV=13.5 Kva=1200 wdg=2 bus=N_10.1.2.3 Conn=wye KV=0.4 
New Transformer.Tr_006 Phases=3 wdg=1 bus=N_9.1.2.3 Conn=wye KV=13.5 Kva=1200 wdg=2 bus=N_11.1.2.3 Conn=wye KV=0.4 
New Transformer.Tr_003 Phases=3 wdg=1 bus=N_5.1.2.3 Conn=wye KV=13.5 Kva=1200 wdg=2 bus=N_F1MW.1.2.3 Conn=wye KV=0.4 
New Transformer.Tr_001 Phases=3 wdg=1 bus=N_5.1.2.3 Conn=wye KV=13.5 Kva= 2100 wdg=2 bus=N_B2MW.1.2.3 Conn=wye KV=0.4 
New Transformer.Tr_009 Phases=3 wdg=1 bus=N_14.1.2.3 Conn=wye KV=13.5 Kva=4200 wdg=2 bus=N_G4MW.1.2.3 Conn=wye KV=0.4 
New Transformer.Tr_002 Phases=3 wdg=1 bus=N_5.1.2.3 Conn=wye KV=13.5 Kva= 2600 wdg=2 bus=N_F15MW.1.2.3 Conn=wye KV=0.4 
New Transformer.Tr_007 Phases=3 wdg=1 bus=N_12.1.2.3 Conn=wye KV=13.5 Kva=900 wdg=2 bus=N_L200kW.1.2.3 Conn=wye KV=0.4 
New Transformer.Tr_008 Phases=3 wdg=1 bus=N_13.1.2.3 Conn=wye KV=13.5 Kva=900 wdg=2 bus=N_L250kW.1.2.3 Conn=wye KV=0.4 
New Transformer.Tr_004 Phases=3 wdg=1 bus=N_7.1.2.3 Conn=wye KV=13.5 Kva=900 wdg=2 bus=N_PV750kW.1.2.3 Conn=wye KV=0.4 


!WINDGEN DEFINITIONS------------------------------------------------------------

New generator.WG_250kW bus1=N_L200kW.1.2.3  phases=3 kv=0.4 kw=250 pf=1.0 conn=wye	
!model=1 daily=windspeed  status=variable 
New vsource.V_WG_250kW angle=30 basekv=0.4 baseMVA=0.250000 enabled=y MVAsc3=0.250000 MVAsc1=0.083333 bus1=N_L200kW.1.2.3 phases=3 pu=1.0

!REDIRECT TO LINE CODES--------------------------------------------

redirect IEEELineCodes-new.DSS


!LINES DEFINITIONS------------------------------------------------------------

New Line.005-006 bus1=N_5.1.2.3 bus2=N_6.1.2.3 Linecode=mtx602 Length=5 Phases=3 
New Line.007-008 bus1=N_8.1.2.3 bus2=N_7.1.2.3 Linecode=mtx602 Length=10 Phases=3 
New Line.009-012 bus1=N_9.1.2.3 bus2=N_12.1.2.3 Linecode=mtx601 Length=5 Phases=3 
New Line.012-013 bus1=N_12.1.2.3 bus2=N_13.1.2.3 Linecode=mtx601 Length=5 Phases=3 
New Line.014-015 bus1=N_14.1.2.3 bus2=N_15.1.2.3 Linecode=mtx602 Length=10 Phases=3 


!CONTROLS DEFINITION------------------------------------------------------------

New Swtcontrol.SW_1_Ctrl basefreq=60.0 Action=Close SwitchedObj=Line.SW_1 SwitchedTerm=2 lock=open enabled=y
New Swtcontrol.SW_2_Ctrl basefreq=60.0 Action=Close SwitchedObj=Line.SW_2 SwitchedTerm=2 lock=open enabled=y
New Swtcontrol.SW_4_Ctrl basefreq=60.0 Action=Close SwitchedObj=Line.SW_4 SwitchedTerm=2 lock=open enabled=y
New Swtcontrol.SW_3_Ctrl basefreq=60.0 Action=Close SwitchedObj=Line.SW_3 SwitchedTerm=2 lock=open enabled=y
New Swtcontrol.SW_5_Ctrl basefreq=60.0 Action=Open SwitchedObj=Line.SW_5 SwitchedTerm=2 lock=open enabled=y
New Swtcontrol.SW_6_Ctrl basefreq=60.0 Action=Close SwitchedObj=Line.SW_6 SwitchedTerm=2 lock=open enabled=y
New Swtcontrol.SW_7_Ctrl basefreq=60.0 Action=Open SwitchedObj=Line.SW_7 SwitchedTerm=2 lock=open enabled=y
New Swtcontrol.SW_8_Ctrl basefreq=60.0 Action=Close SwitchedObj=Line.SW_8 SwitchedTerm=2 lock=open enabled=y
New Swtcontrol.SW_10_Ctrl basefreq=60.0 Action=Open SwitchedObj=Line.SW_10 SwitchedTerm=2 lock=open enabled=y
New Swtcontrol.SW_11_Ctrl basefreq=60.0 Action=Close SwitchedObj=Line.SW_11 SwitchedTerm=2 lock=open enabled=y
New Swtcontrol.SW_12_Ctrl basefreq=60.0 Action=Open SwitchedObj=Line.SW_12 SwitchedTerm=2 lock=open enabled=y
New Swtcontrol.SW_9_Ctrl basefreq=60.0 Action=Close SwitchedObj=Line.SW_9 SwitchedTerm=2 lock=open enabled=y

!REDIRECT TO CONTROL CODES--------------------------------------------

redirect Control.DSS

Set Controlmode=OFF
